// Generated for: spectre
// Generated on: Oct 11 08:36:35 2021
// Design library name: MultiChannel_EMG_TestBench
// Design cell name: TCA_DSL_Chopping_TB
// Design view name: config
simulator lang=spectre binding=vlog  
global 0
