// Generated for: spectre
// Generated on: Oct 11 15:29:31 2021
// Design library name: MultiChannel_EMG_TestBench
// Design cell name: TCA_DSL_Chopping_TB
// Design view name: config
simulator lang=spectre binding=vlog  
global 0
