// Generated for: spectre
// Generated on: Sep 30 10:23:17 2021
// Design library name: Device_Characteristics
// Design cell name: FastBias_ne
// Design view name: schematic
simulator lang=spectre
global 0
