// Generated for: spectre
// Generated on: Oct  7 11:21:12 2021
// Design library name: MultiChannel_EMG_IMP
// Design cell name: TCA_3
// Design view name: schematic
simulator lang=spectre
global 0
