// Generated for: spectre
// Generated on: Oct 11 11:37:10 2021
// Design library name: MultiChannel_EMG_TestBench
// Design cell name: MultiChannelAFE_TB_2
// Design view name: config
simulator lang=spectre binding=vlog  
global 0
