// Generated for: spectre
// Generated on: Oct  1 14:12:27 2021
// Design library name: MultiChannel_EMG_IMP
// Design cell name: TCA_DSL_v3
// Design view name: schematic
simulator lang=spectre
global 0
