// Generated for: spectre
// Generated on: Oct 11 08:35:32 2021
// Design library name: MultiChannel_EMG_TestBench
// Design cell name: TCAimp_TB
// Design view name: schematic
simulator lang=spectre
global 0
