// Generated for: spectre
// Generated on: Oct  7 13:54:23 2021
// Design library name: MultiChannel_EMG_TestBench
// Design cell name: PseudoResistor_TB
// Design view name: schematic
simulator lang=spectre
global 0
