simulator lang=spectre
include "pel.scs"
