simulator lang=spectre
include "nel.scs"
