// Generated for: spectre
// Generated on: Oct  4 10:23:48 2021
// Design library name: Device_Characteristics
// Design cell name: FastBias_nel
// Design view name: schematic
simulator lang=spectre
global 0
