simulator lang=spectre
include "ne.scs"
include "pe.scs"
