// Generated for: spectre
// Generated on: Oct  1 17:02:02 2021
// Design library name: MultiChannel_EMG_Model
// Design cell name: NoiseSim_TCA
// Design view name: schematic
simulator lang=spectre
global 0
