// Generated for: spectre
// Generated on: Oct  1 12:41:39 2021
// Design library name: MultiChannel_EMG_IMP
// Design cell name: TCA_DSL_v2
// Design view name: schematic
simulator lang=spectre
global 0
