simulator lang=spectre
include "cmm5t.scs"
include "nel.scs"
include "neli.scs"
include "pel.scs"
include "rpp1k1.scs"
