// Generated for: spectre
// Generated on: Oct 11 15:46:46 2021
// Design library name: MultiChannel_EMG_TestBench
// Design cell name: MultiChannelAFE_TB_2
// Design view name: config
simulator lang=spectre binding=vlog  
global 0
