// Generated for: spectre
// Generated on: Oct  4 10:27:41 2021
// Design library name: Device_Characteristics
// Design cell name: FastBias_pel
// Design view name: schematic
simulator lang=spectre
global 0
