// Generated for: spectre
// Generated on: Oct  1 11:02:11 2021
// Design library name: MultiChannel_EMG_TestBench
// Design cell name: TCA_DSL_TB
// Design view name: schematic
simulator lang=spectre
global 0
