// Generated for: spectre
// Generated on: Oct  8 09:49:13 2021
// Design library name: MultiChannel_EMG_TestBench
// Design cell name: TCAimp_TB
// Design view name: schematic
simulator lang=spectre
global 0
