// Generated for: spectre
// Generated on: Oct  5 16:50:15 2021
// Design library name: MultiChannel_EMG_IMP
// Design cell name: TCA_3
// Design view name: schematic
simulator lang=spectre
global 0
