// Generated for: spectre
// Generated on: Oct  5 16:32:11 2021
// Design library name: MultiChannel_EMG_TestBench
// Design cell name: PseudoResistor_TB
// Design view name: schematic
simulator lang=spectre
global 0
