simulator lang=spectre
include "nel.scs"
include "pel.scs"
