// Generated for: spectre
// Generated on: Oct  5 13:52:40 2021
// Design library name: MultiChannel_EMG_IMP
// Design cell name: TCA_3
// Design view name: schematic
simulator lang=spectre
global 0
